#include "appliance_schedules.glm"
#include "water_and_setpoint_schedule_v5.glm"
#include "commercial_schedules.glm"
#include "daily_elasticity_schedules.glm"
#set profiler=1
#set relax_naming_rules=1
#set minimum_timestep=60
module residential {
  implicit_enduses NONE;
};
module tape;
module climate;
module powerflow {
  solver_method NR;
  NR_iteration_limit 50;
};
module market;
class player {
  double value;
};
class auction {
  double my_avg;
  double my_std;
};
clock {
  timezone PST+8PDT;
  stoptime '2009-06-01 20:00:00';
  starttime '2009-06-01 09:00:00';
};
object node {
  nominal_voltage 480.000000;
  name R1-12-47-3_load_18_strip_node;
  phases ABCN;
};
object line_spacing {
  distance_CN 84.0 in;
  distance_BN 84.0 in;
  distance_AN 84.0 in;
  distance_AC 57.6 in;
  distance_BC 57.6 in;
  distance_AB 57.6 in;
  name line_spacing_10;
};
object overhead_line_conductor {
  resistance 1.62570;
  geometric_mean_radius 0.00418 ft;
  rating.summer.continuous 180.0;
  name overhead_line_conductor_6;
};
object line_configuration {
  name line_configuration_24;
  spacing line_spacing_10;
  conductor_N overhead_line_conductor_6;
  conductor_C overhead_line_conductor_6;
  conductor_B overhead_line_conductor_6;
  conductor_A overhead_line_conductor_6;
};
object node {
  nominal_voltage 7200;
  voltage_C -3600+6235j;
  voltage_B -3600-6235j;
  voltage_A 7200+0.0j;
  phases ABCN;
  name R1-12-47-3_node_18;
};
object node {
  nominal_voltage 7200;
  voltage_C -3600+6235j;
  voltage_B -3600-6235j;
  voltage_A 7200+0.0j;
  phases ABCN;
  name R1-12-47-3_node_17;
};
object overhead_line {
  length 1499.769;
  phases ABCN;
  name R1-12-47-3_ol_14;
  groupid Distribution_Line;
  configuration line_configuration_24;
  to R1-12-47-3_node_18;
  from R1-12-47-3_node_17;
};
object meter {
  nominal_voltage 480;
  phases ABCN;
  name R1-12-47-3_meter_21;
};
object node {
  nominal_voltage 480.00;
  phases ABCN;
  name R1-12-47-3_load_21;
  parent R1-12-47-3_meter_21;
};
object auction {
  my_std 0.033058;
  my_avg 0.099172;
  unit kW;
  special_mode BUYERS_ONLY;
  period 900;
  name Market_1;
};
object triplex_node {
  nominal_voltage 120;
  phases BS;
  name R1-12-47-3_load_18_tn_B_1;
};
object triplex_meter {
  bill_day 1;
  monthly_fee 25.00;
  bill_mode HOURLY;
  nominal_voltage 120;
  meter_power_consumption 1.333333+7.000000j;
  groupid Commercial_Meter;
  phases BS;
  name R1-12-47-3_load_18_tm_B_1;
  power_market Market_1;
  parent R1-12-47-3_load_18_tn_B_1;
};
object house {
  heating_setpoint stripmall_heating;
  cooling_setpoint 85;
  cooling_COP 2.86;
  over_sizing_factor 0.1;
  mass_temperature 68.51;
  air_temperature 68.51;
  cooling_system_type ELECTRIC;
  fan_type ONE_SPEED;
  auxiliary_system_type NONE;
  heating_system_type GAS;
  window_wall_ratio 0.050;
  airchange_per_hour 1.76;
  window_frame NONE;
  glazing_treatment LOW_S;
  glass_type GLASS;
  glazing_layers TWO;
  exterior_wall_fraction 0.40;
  Rdoors 3.0;
  Rfloor 40.00;
  Rroof 19.0;
  Rwall 18.3;
  exterior_ceiling_fraction 1.000;
  exterior_floor_fraction 0.800;
  interior_exterior_wall_ratio -0.1;
  interior_surface_heat_transfer_coeff 0.59;
  total_thermal_mass_per_floor_area 4.47;
  aspect_ratio 1.50;
  number_of_doors 1;
  design_internal_gains 26520;
  floor_area 2158;
  schedule_skew -3600;
  groupid Commercial;
  name stripmallR1-12-47-3_load_18_B1;
  parent R1-12-47-3_load_18_tm_B_1;
};
object ZIPload {
  base_power stripmall_exterior*2.40;
  impedance_pf 1.00;
  current_pf 1.00;
  power_pf 1.00;
  current_fraction 0.40;
  impedance_fraction 0.20;
  power_fraction 0.40;
  heatgain_fraction 0.0;
  schedule_skew -3600;
  name ext_R1-12-47-3_load_18_B_1;
  parent stripmallR1-12-47-3_load_18_B1;
};
object triplex_node {
  nominal_voltage 120;
  phases CS;
  name R1-12-47-3_load_6_tn_C_1;
};
object triplex_meter {
  bill_day 1;
  monthly_fee 25.00;
  bill_mode HOURLY;
  nominal_voltage 120;
  meter_power_consumption 1.333333+7.000000j;
  groupid Commercial_Meter;
  phases CS;
  name R1-12-47-3_load_6_tm_C_1;
  power_market Market_1;
  parent R1-12-47-3_load_6_tn_C_1;
};
object house {
  heating_setpoint stripmall_heating;
  cooling_setpoint 85;
  cooling_COP 2.66;
  over_sizing_factor 0.1;
  mass_temperature 70.86;
  air_temperature 70.86;
  cooling_system_type ELECTRIC;
  fan_type ONE_SPEED;
  auxiliary_system_type NONE;
  heating_system_type GAS;
  window_wall_ratio 0.050;
  airchange_per_hour 1.76;
  window_frame NONE;
  glazing_treatment LOW_S;
  glass_type GLASS;
  glazing_layers TWO;
  exterior_wall_fraction 0.40;
  Rdoors 3.0;
  Rfloor 40.00;
  Rroof 19.0;
  Rwall 18.3;
  exterior_ceiling_fraction 1.000;
  exterior_floor_fraction 0.800;
  interior_exterior_wall_ratio -0.1;
  interior_surface_heat_transfer_coeff 0.59;
  total_thermal_mass_per_floor_area 2.11;
  aspect_ratio 1.50;
  number_of_doors 1;
  design_internal_gains 25615;
  floor_area 2085;
  schedule_skew -3600;
  groupid Commercial;
  name stripmallR1-12-47-3_load_6_C1;
  parent R1-12-47-3_load_6_tm_C_1;
};
object controller {
  name controller_16;
  state power_state;
  load hvac_load;
  total hvac_load;
  deadband thermostat_deadband;
  demand last_cooling_load;
  setpoint cooling_setpoint;
  target air_temperature;
  standard_deviation_target my_std;
  average_target my_avg;
  period 900;
  base_setpoint stripmall_cooling;
  ramp_low 2.411;
  ramp_high 2.411;
  range_low -0.005;
  range_high 2.946;
  control_mode RAMP;
  bid_mode OFF;
  schedule_skew -3600;
  market Market_1;
  parent stripmallR1-12-47-3_load_6_C1;
};
object triplex_node {
  nominal_voltage 120;
  phases CS;
  name R1-12-47-3_load_5_tn_C_1;
};
object triplex_meter {
  bill_day 1;
  monthly_fee 25.00;
  bill_mode HOURLY;
  nominal_voltage 120;
  meter_power_consumption 1.333333+7.000000j;
  groupid Commercial_Meter;
  phases CS;
  name R1-12-47-3_load_5_tm_C_1;
  power_market Market_1;
  parent R1-12-47-3_load_5_tn_C_1;
};
object house {
  heating_setpoint stripmall_heating;
  cooling_setpoint 85;
  cooling_COP 3.26;
  over_sizing_factor 0.1;
  mass_temperature 69.67;
  air_temperature 69.67;
  cooling_system_type ELECTRIC;
  fan_type ONE_SPEED;
  auxiliary_system_type NONE;
  heating_system_type GAS;
  window_wall_ratio 0.050;
  airchange_per_hour 1.76;
  window_frame NONE;
  glazing_treatment LOW_S;
  glass_type GLASS;
  glazing_layers TWO;
  exterior_wall_fraction 0.40;
  Rdoors 3.0;
  Rfloor 40.00;
  Rroof 19.0;
  Rwall 18.3;
  exterior_ceiling_fraction 1.000;
  exterior_floor_fraction 0.800;
  interior_exterior_wall_ratio -0.1;
  interior_surface_heat_transfer_coeff 0.59;
  total_thermal_mass_per_floor_area 3.80;
  aspect_ratio 1.50;
  number_of_doors 1;
  design_internal_gains 28344;
  floor_area 2307;
  schedule_skew -1800;
  groupid Commercial;
  name stripmallR1-12-47-3_load_5_C1;
  parent R1-12-47-3_load_5_tm_C_1;
};
object ZIPload {
  base_power stripmall_plugs*1.96;
  impedance_pf 1.00;
  current_pf 1.00;
  power_pf 1.00;
  current_fraction 0.40;
  impedance_fraction 0.20;
  power_fraction 0.40;
  heatgain_fraction 1.0;
  schedule_skew -1800;
  name plugs_R1-12-47-3_load_5_C_1;
  parent stripmallR1-12-47-3_load_5_C1;
};
object triplex_node {
  nominal_voltage 120;
  phases AS;
  name R1-12-47-3_load_6_tn_A_1;
};
object triplex_meter {
  bill_day 1;
  monthly_fee 25.00;
  bill_mode HOURLY;
  nominal_voltage 120;
  meter_power_consumption 1.333333+7.000000j;
  groupid Commercial_Meter;
  phases AS;
  name R1-12-47-3_load_6_tm_A_1;
  power_market Market_1;
  parent R1-12-47-3_load_6_tn_A_1;
};
object house {
  heating_setpoint stripmall_heating;
  cooling_setpoint 85;
  cooling_COP 2.47;
  over_sizing_factor 0.1;
  mass_temperature 68.87;
  air_temperature 68.87;
  cooling_system_type ELECTRIC;
  fan_type ONE_SPEED;
  auxiliary_system_type NONE;
  heating_system_type GAS;
  window_wall_ratio 0.050;
  airchange_per_hour 1.76;
  window_frame NONE;
  glazing_treatment LOW_S;
  glass_type GLASS;
  glazing_layers TWO;
  exterior_wall_fraction 0.40;
  Rdoors 3.0;
  Rfloor 40.00;
  Rroof 19.0;
  Rwall 18.3;
  exterior_ceiling_fraction 1.000;
  exterior_floor_fraction 0.800;
  interior_exterior_wall_ratio -0.1;
  interior_surface_heat_transfer_coeff 0.59;
  total_thermal_mass_per_floor_area 3.24;
  aspect_ratio 1.50;
  number_of_doors 1;
  design_internal_gains 30430;
  floor_area 2477;
  schedule_skew -3600;
  groupid Commercial;
  name stripmallR1-12-47-3_load_6_A1;
  parent R1-12-47-3_load_6_tm_A_1;
};
object ZIPload {
  base_power stripmall_lights*2.68;
  impedance_pf 1.00;
  current_pf 1.00;
  power_pf 1.00;
  current_fraction 0.40;
  impedance_fraction 0.20;
  power_fraction 0.40;
  heatgain_fraction 1.0;
  schedule_skew -3600;
  name lights_R1-12-47-3_load_6_A_1;
  parent stripmallR1-12-47-3_load_6_A1;
};
object triplex_node {
  nominal_voltage 120;
  phases AS;
  name R1-12-47-3_load_11_tn_A_1;
};
object triplex_meter {
  bill_day 1;
  monthly_fee 25.00;
  bill_mode HOURLY;
  nominal_voltage 120;
  meter_power_consumption 1.333333+7.000000j;
  groupid Commercial_Meter;
  phases AS;
  name R1-12-47-3_load_11_tm_A_1;
  power_market Market_1;
  parent R1-12-47-3_load_11_tn_A_1;
};
object house {
  heating_setpoint stripmall_heating;
  cooling_setpoint 85;
  cooling_COP 3.35;
  over_sizing_factor 0.1;
  mass_temperature 70.25;
  air_temperature 70.25;
  cooling_system_type ELECTRIC;
  fan_type ONE_SPEED;
  auxiliary_system_type NONE;
  heating_system_type GAS;
  window_wall_ratio 0.050;
  airchange_per_hour 1.76;
  window_frame NONE;
  glazing_treatment LOW_S;
  glass_type GLASS;
  glazing_layers TWO;
  exterior_wall_fraction 0.40;
  Rdoors 3.0;
  Rfloor 40.00;
  Rroof 19.0;
  Rwall 18.3;
  exterior_ceiling_fraction 1.000;
  exterior_floor_fraction 0.800;
  interior_exterior_wall_ratio -0.1;
  interior_surface_heat_transfer_coeff 0.59;
  total_thermal_mass_per_floor_area 2.43;
  aspect_ratio 1.50;
  number_of_doors 1;
  design_internal_gains 27326;
  floor_area 2224;
  schedule_skew -5400;
  groupid Commercial;
  name stripmallR1-12-47-3_load_11_A1;
  parent R1-12-47-3_load_11_tm_A_1;
};
object ZIPload {
  base_power stripmall_occupancy*2.19;
  power_pf 1.0;
  current_fraction 0.0;
  impedance_fraction 0.0;
  power_fraction 0.0;
  heatgain_fraction 1.0;
  schedule_skew -5400;
  name occ_R1-12-47-3_load_11_A_1;
  parent stripmallR1-12-47-3_load_11_A1;
};
object triplex_meter {
  nominal_voltage 120;
  voltage_N 0;
  voltage_2 -60-103.92j;
  voltage_1 -60-103.92j;
  phases BS;
  name R1-12-47-3_tm_1;
};
object triplex_meter {
  nominal_voltage 120;
  bill_day 1;
  monthly_fee 10.00;
  bill_mode HOURLY;
  meter_power_consumption 2+11j;
  groupid Residential_Meter;
  name tpm5_R1-12-47-3_tm_1;
  phases BS;
  power_market Market_1;
  parent R1-12-47-3_tm_1;
};
object house {
  heating_setpoint 63.66;
  cooling_setpoint 66.66;
  hvac_breaker_rating 1000;
  breaker_amps 1000;
  cooling_system_type NONE;
  heating_system_type RESISTANCE;
  total_thermal_mass_per_floor_area 3.632;
  mass_temperature 70.13;
  air_temperature 70.13;
  cooling_COP 2.7;
  airchange_per_hour 0.85;
  Rdoors 2.22;
  window_frame 1;
  glazing_treatment 1;
  glass_type 1;
  glazing_layers 1;
  Rfloor 11.27;
  Rwall 9.57;
  Rroof 13.65;
  over_sizing_factor 0.1;
  ceiling_height 9;
  number_of_stories 2;
  floor_area 479;
  schedule_skew 696;
  groupid Residential;
  name house5_R1-12-47-3_tm_1;
  parent tpm5_R1-12-47-3_tm_1;
};
object ZIPload {
  power_fraction 0.400000;
  current_fraction 0.400000;
  impedance_fraction 0.200000;
  impedance_pf 1.000;
  current_pf 1.000;
  power_pf 1.000;
  heatgain_fraction 0.900;
  base_power responsive_loads*0.55;
  schedule_skew 696;
  name house5_resp_R1-12-47-3_tn_2;
  parent house5_R1-12-47-3_tm_1;
};
object passive_controller {
  name passive_controller_7;
  sub_elasticity_first_third -0.2695;
  sub_elasticity_first_second -0.1845;
  daily_elasticity daily_elasticity_wtech*1.2138;
  old_second_tier_price 0.124300;
  old_first_tier_price 0.124300;
  second_tier_price 0.132229;
  first_tier_price 0.066115;
  second_tier_hours 12;
  first_tier_hours 12;
  critical_day 0;
  price_offset 0.01;
  linearize_elasticity true;
  state_property multiplier;
  observation_property past_market.clearing_price;
  two_tier_cpp false;
  control_mode ELASTICITY_MODEL;
  period 900;
  observation_object Market_1;
  parent house5_resp_R1-12-47-3_tn_2;
};
object triplex_node {
  nominal_voltage 120;
  phases CS;
  name R1-12-47-3_load_10_tn_C_1;
};
object triplex_meter {
  bill_day 1;
  monthly_fee 25.00;
  bill_mode HOURLY;
  nominal_voltage 120;
  meter_power_consumption 1.333333+7.000000j;
  groupid Commercial_Meter;
  phases CS;
  name R1-12-47-3_load_10_tm_C_1;
  power_market Market_1;
  parent R1-12-47-3_load_10_tn_C_1;
};
object house {
  heating_setpoint stripmall_heating;
  cooling_setpoint 85;
  cooling_COP 3.54;
  over_sizing_factor 0.1;
  mass_temperature 71.15;
  air_temperature 71.15;
  cooling_system_type ELECTRIC;
  fan_type ONE_SPEED;
  auxiliary_system_type NONE;
  heating_system_type GAS;
  window_wall_ratio 0.050;
  airchange_per_hour 1.76;
  window_frame NONE;
  glazing_treatment LOW_S;
  glass_type GLASS;
  glazing_layers TWO;
  exterior_wall_fraction 0.40;
  Rdoors 3.0;
  Rfloor 40.00;
  Rroof 19.0;
  Rwall 18.3;
  exterior_ceiling_fraction 1.000;
  exterior_floor_fraction 0.800;
  interior_exterior_wall_ratio -0.1;
  interior_surface_heat_transfer_coeff 0.59;
  total_thermal_mass_per_floor_area 5.32;
  aspect_ratio 1.50;
  number_of_doors 1;
  design_internal_gains 22986;
  floor_area 1871;
  schedule_skew 1800;
  groupid Commercial;
  name stripmallR1-12-47-3_load_10_C1;
  parent R1-12-47-3_load_10_tm_C_1;
};
object ZIPload {
  base_power stripmall_exterior*1.68;
  impedance_pf 1.00;
  current_pf 1.00;
  power_pf 1.00;
  current_fraction 0.40;
  impedance_fraction 0.20;
  power_fraction 0.40;
  heatgain_fraction 0.0;
  schedule_skew 1800;
  name ext_R1-12-47-3_load_10_C_1;
  parent stripmallR1-12-47-3_load_10_C1;
};
object billdump {
  name billdump_24;
  meter_type TRIPLEX_METER;
  group Commercial_Meter;
  filename R1_1247_3_t6_bill_commSP13.csv;
  runtime 2010-02-01 03:00:00;
};
object triplex_node {
  nominal_voltage 120;
  voltage_N 0;
  voltage_2 -60-103.92j;
  voltage_1 -60-103.92j;
  phases BS;
  name R1-12-47-3_tn_1;
};
object overhead_line_conductor {
  resistance 0.95300;
  geometric_mean_radius 0.01203 ft;
  rating.summer.continuous 230.0;
  name overhead_line_conductor_7;
};
object line_configuration {
  name line_configuration_26;
  spacing line_spacing_10;
  conductor_N overhead_line_conductor_7;
  conductor_C overhead_line_conductor_7;
  conductor_B overhead_line_conductor_7;
  conductor_A overhead_line_conductor_7;
};
object triplex_node {
  nominal_voltage 120;
  phases AS;
  name R1-12-47-3_load_18_tn_A_1;
};
object triplex_meter {
  bill_day 1;
  monthly_fee 25.00;
  bill_mode HOURLY;
  nominal_voltage 120;
  meter_power_consumption 1.333333+7.000000j;
  groupid Commercial_Meter;
  phases AS;
  name R1-12-47-3_load_18_tm_A_1;
  power_market Market_1;
  parent R1-12-47-3_load_18_tn_A_1;
};
object house {
  heating_setpoint stripmall_heating;
  cooling_setpoint 85;
  cooling_COP 2.76;
  over_sizing_factor 0.1;
  mass_temperature 68.17;
  air_temperature 68.17;
  cooling_system_type ELECTRIC;
  fan_type ONE_SPEED;
  auxiliary_system_type NONE;
  heating_system_type GAS;
  window_wall_ratio 0.050;
  airchange_per_hour 1.76;
  window_frame NONE;
  glazing_treatment LOW_S;
  glass_type GLASS;
  glazing_layers TWO;
  exterior_wall_fraction 0.40;
  Rdoors 3.0;
  Rfloor 40.00;
  Rroof 19.0;
  Rwall 18.3;
  exterior_ceiling_fraction 1.000;
  exterior_floor_fraction 0.800;
  interior_exterior_wall_ratio -0.1;
  interior_surface_heat_transfer_coeff 0.59;
  total_thermal_mass_per_floor_area 2.40;
  aspect_ratio 1.50;
  number_of_doors 1;
  design_internal_gains 35052;
  floor_area 2853;
  schedule_skew -5400;
  groupid Commercial;
  name stripmallR1-12-47-3_load_18_A1;
  parent R1-12-47-3_load_18_tm_A_1;
};
object ZIPload {
  base_power stripmall_exterior*2.57;
  impedance_pf 1.00;
  current_pf 1.00;
  power_pf 1.00;
  current_fraction 0.40;
  impedance_fraction 0.20;
  power_fraction 0.40;
  heatgain_fraction 0.0;
  schedule_skew -5400;
  name ext_R1-12-47-3_load_18_A_1;
  parent stripmallR1-12-47-3_load_18_A1;
};
object transformer_configuration {
  powerB_rating 50 kVA;
  secondary_voltage 207.846;
  primary_voltage 480.000;
  shunt_impedance 100000+100000j;
  impedance 0.00033+0.0022j;
  install_type POLETOP;
  connect_type SINGLE_PHASE_CENTER_TAPPED;
  name CTTF_config_B_R1-12-47-3_load_2;
};
object player {
  name player0;
  property current_market.clearing_price;
  loop 10;
  file R1_1247_3_t0_TOU.player;
  parent Market_1;
};
object triplex_node {
  nominal_voltage 120;
  phases AS;
  name R1-12-47-3_load_7_tn_A_2;
};
object triplex_meter {
  bill_day 1;
  monthly_fee 25.00;
  bill_mode HOURLY;
  nominal_voltage 120;
  meter_power_consumption 1.333333+7.000000j;
  groupid Commercial_Meter;
  phases AS;
  name R1-12-47-3_load_7_tm_A_2;
  power_market Market_1;
  parent R1-12-47-3_load_7_tn_A_2;
};
object house {
  heating_setpoint stripmall_heating;
  cooling_setpoint 85;
  cooling_COP 2.66;
  over_sizing_factor 0.1;
  mass_temperature 68.64;
  air_temperature 68.64;
  cooling_system_type ELECTRIC;
  fan_type ONE_SPEED;
  auxiliary_system_type NONE;
  heating_system_type GAS;
  window_wall_ratio 0.050;
  airchange_per_hour 1.76;
  window_frame NONE;
  glazing_treatment LOW_S;
  glass_type GLASS;
  glazing_layers TWO;
  exterior_wall_fraction 0.40;
  Rdoors 3.0;
  Rfloor 40.00;
  Rroof 19.0;
  Rwall 18.3;
  exterior_ceiling_fraction 1.000;
  exterior_floor_fraction 0.800;
  interior_exterior_wall_ratio -0.1;
  interior_surface_heat_transfer_coeff 0.59;
  total_thermal_mass_per_floor_area 3.14;
  aspect_ratio 1.50;
  number_of_doors 1;
  design_internal_gains 27191;
  floor_area 2213;
  schedule_skew -1800;
  groupid Commercial;
  name stripmallR1-12-47-3_load_7_A2;
  parent R1-12-47-3_load_7_tm_A_2;
};
object triplex_node {
  nominal_voltage 120;
  phases BS;
  name R1-12-47-3_load_2_tn_B_1;
};
object triplex_meter {
  bill_day 1;
  monthly_fee 25.00;
  bill_mode HOURLY;
  nominal_voltage 120;
  meter_power_consumption 1.333333+7.000000j;
  groupid Commercial_Meter;
  phases BS;
  name R1-12-47-3_load_2_tm_B_1;
  power_market Market_1;
  parent R1-12-47-3_load_2_tn_B_1;
};
object house {
  heating_setpoint stripmall_heating;
  cooling_setpoint 85;
  cooling_COP 2.71;
  over_sizing_factor 0.1;
  mass_temperature 68.99;
  air_temperature 68.99;
  cooling_system_type ELECTRIC;
  fan_type ONE_SPEED;
  auxiliary_system_type NONE;
  heating_system_type GAS;
  window_wall_ratio 0.050;
  airchange_per_hour 1.76;
  window_frame NONE;
  glazing_treatment LOW_S;
  glass_type GLASS;
  glazing_layers TWO;
  exterior_wall_fraction 0.40;
  Rdoors 3.0;
  Rfloor 40.00;
  Rroof 19.0;
  Rwall 18.3;
  exterior_ceiling_fraction 1.000;
  exterior_floor_fraction 0.800;
  interior_exterior_wall_ratio -0.1;
  interior_surface_heat_transfer_coeff 0.59;
  total_thermal_mass_per_floor_area 5.60;
  aspect_ratio 1.50;
  number_of_doors 1;
  design_internal_gains 21709;
  floor_area 1767;
  schedule_skew 1800;
  groupid Commercial;
  name stripmallR1-12-47-3_load_2_B1;
  parent R1-12-47-3_load_2_tm_B_1;
};
object ZIPload {
  base_power stripmall_occupancy*1.97;
  power_pf 1.0;
  current_fraction 0.0;
  impedance_fraction 0.0;
  power_fraction 0.0;
  heatgain_fraction 1.0;
  schedule_skew 1800;
  name occ_R1-12-47-3_load_2_B_1;
  parent stripmallR1-12-47-3_load_2_B1;
};
object triplex_node {
  nominal_voltage 120;
  phases BS;
  name R1-12-47-3_load_21_tn_B_1;
};
object triplex_meter {
  bill_day 1;
  monthly_fee 25.00;
  bill_mode HOURLY;
  nominal_voltage 120;
  meter_power_consumption 1.333333+7.000000j;
  groupid Commercial_Meter;
  phases BS;
  name R1-12-47-3_load_21_tm_B_1;
  power_market Market_1;
  parent R1-12-47-3_load_21_tn_B_1;
};
object house {
  heating_setpoint stripmall_heating;
  cooling_setpoint 85;
  cooling_COP 2.88;
  over_sizing_factor 0.1;
  mass_temperature 71.31;
  air_temperature 71.31;
  cooling_system_type ELECTRIC;
  fan_type ONE_SPEED;
  auxiliary_system_type NONE;
  heating_system_type GAS;
  window_wall_ratio 0.050;
  airchange_per_hour 1.76;
  window_frame NONE;
  glazing_treatment LOW_S;
  glass_type GLASS;
  glazing_layers TWO;
  exterior_wall_fraction 0.40;
  Rdoors 3.0;
  Rfloor 40.00;
  Rroof 19.0;
  Rwall 18.3;
  exterior_ceiling_fraction 1.000;
  exterior_floor_fraction 0.800;
  interior_exterior_wall_ratio -0.1;
  interior_surface_heat_transfer_coeff 0.59;
  total_thermal_mass_per_floor_area 3.23;
  aspect_ratio 1.50;
  number_of_doors 1;
  design_internal_gains 27126;
  floor_area 2208;
  schedule_skew 3600;
  groupid Commercial;
  name stripmallR1-12-47-3_load_21_B1;
  parent R1-12-47-3_load_21_tm_B_1;
};
object ZIPload {
  base_power stripmall_plugs*2.39;
  impedance_pf 1.00;
  current_pf 1.00;
  power_pf 1.00;
  current_fraction 0.40;
  impedance_fraction 0.20;
  power_fraction 0.40;
  heatgain_fraction 1.0;
  schedule_skew 3600;
  name plugs_R1-12-47-3_load_21_B_1;
  parent stripmallR1-12-47-3_load_21_B1;
};
object billdump {
  name billdump_19;
  meter_type TRIPLEX_METER;
  group Residential_Meter;
  filename R1_1247_3_t6_bill_res11.csv;
  runtime 2009-12-01 03:00:00;
};
object billdump {
  name billdump_20;
  meter_type TRIPLEX_METER;
  group Commercial_Meter;
  filename R1_1247_3_t6_bill_commSP11.csv;
  runtime 2009-12-01 03:00:00;
};
object underground_line_conductor {
  shield_resistance 0.00;
  shield_gmr 0.00;
  neutral_strands 20.0;
  neutral_diameter 0.1019;
  neutral_resistance 5.3856;
  neutral_gmr 0.0842565914341201 ft;
  conductor_resistance 0.091872;
  conductor_diameter 1.152;
  conductor_gmr 0.0371 ft;
  outer_diameter 2.15;
  rating.summer.continuous 488.0;
  name underground_line_conductor_2;
};
object line_spacing {
  distance_CN 0.0 in;
  distance_BN 0.0 in;
  distance_AN 0.0 in;
  distance_AC 0.0 in;
  distance_BC 0.0 in;
  distance_AB 0.0 in;
  name line_spacing_9;
};
object line_configuration {
  name line_configuration_17;
  spacing line_spacing_9;
  conductor_N underground_line_conductor_2;
  conductor_C underground_line_conductor_2;
  conductor_B underground_line_conductor_2;
  conductor_A underground_line_conductor_2;
};
object triplex_node {
  nominal_voltage 120;
  phases BS;
  name R1-12-47-3_load_16_tn_B_1;
};
object triplex_meter {
  bill_day 1;
  monthly_fee 25.00;
  bill_mode HOURLY;
  nominal_voltage 120;
  meter_power_consumption 1.333333+7.000000j;
  groupid Commercial_Meter;
  phases BS;
  name R1-12-47-3_load_16_tm_B_1;
  power_market Market_1;
  parent R1-12-47-3_load_16_tn_B_1;
};
object triplex_meter {
  nominal_voltage 120;
  bill_day 1;
  monthly_fee 10.00;
  bill_mode HOURLY;
  meter_power_consumption 2+11j;
  groupid Residential_Meter;
  name tpm6_R1-12-47-3_tm_1;
  phases BS;
  power_market Market_1;
  parent R1-12-47-3_tm_1;
};
object transformer_configuration {
  shunt_impedance 391.760+396.403j;
  reactance 0.01000;
  resistance 0.00200;
  powerC_rating 50.0;
  power_rating 50.0;
  secondary_voltage 480 V;
  primary_voltage 12470.000 V;
  install_type POLETOP;
  connect_type WYE_WYE;
  name transformer_configuration_137;
};
object transformer_configuration {
  shunt_impedance 443.910+482.260j;
  reactance 0.00667;
  resistance 0.00133;
  powerC_rating 50.0;
  powerB_rating 25.0;
  powerA_rating 0.0;
  power_rating 75.0;
  secondary_voltage 480 V;
  primary_voltage 12470.000 V;
  install_type POLETOP;
  connect_type WYE_WYE;
  name transformer_configuration_142;
};
object node {
  nominal_voltage 480.000000;
  name R1-12-47-3_load_21_strip_node;
  phases ABCN;
};
object triplex_meter {
  nominal_voltage 120;
  bill_day 1;
  monthly_fee 10.00;
  bill_mode HOURLY;
  meter_power_consumption 2+11j;
  groupid Residential_Meter;
  name tpm9_R1-12-47-3_tm_1;
  phases BS;
  power_market Market_1;
  parent R1-12-47-3_tm_1;
};
object house {
  heating_setpoint 82.58;
  cooling_setpoint 85.58;
  hvac_breaker_rating 1000;
  breaker_amps 1000;
  motor_efficiency AVERAGE;
  motor_model BASIC;
  auxiliary_system_type ELECTRIC;
  auxiliary_strategy DEADBAND;
  cooling_system_type ELECTRIC;
  heating_COP 3.2;
  heating_system_type HEAT_PUMP;
  total_thermal_mass_per_floor_area 3.387;
  mass_temperature 71.50;
  air_temperature 71.50;
  cooling_COP 3.2;
  airchange_per_hour 0.59;
  Rdoors 2.42;
  window_frame 2;
  glazing_treatment 1;
  glass_type 1;
  glazing_layers 2;
  Rfloor 15.63;
  Rwall 17.83;
  Rroof 30.08;
  over_sizing_factor 0.1;
  ceiling_height 8;
  number_of_stories 1;
  floor_area 1298;
  schedule_skew 62;
  groupid Residential;
  name house9_R1-12-47-3_tm_1;
  parent tpm9_R1-12-47-3_tm_1;
};
object controller {
  name controller_2;
  state power_state;
  load hvac_load;
  total hvac_load;
  deadband thermostat_deadband;
  cooling_demand last_cooling_load;
  cooling_setpoint cooling_setpoint;
  heating_demand last_heating_load;
  heating_setpoint heating_setpoint;
  target air_temperature;
  standard_deviation_target my_std;
  average_target my_avg;
  period 900;
  heating_base_setpoint heating5*0.03+73.79;
  cooling_base_setpoint cooling7*1.50+85.58;
  cooling_ramp_low 2.756;
  heating_ramp_low -2.756;
  cooling_ramp_high 2.756;
  heating_ramp_high -2.756;
  cooling_range_low -0.005;
  heating_range_low -0.005;
  cooling_range_high 1.222;
  heating_range_high -1.222;
  resolve_mode DEADBAND;
  control_mode DOUBLE_RAMP;
  bid_mode OFF;
  schedule_skew 62;
  market Market_1;
  parent house9_R1-12-47-3_tm_1;
};
object triplex_node {
  nominal_voltage 120;
  phases BS;
  name R1-12-47-3_load_17_tn_B_1;
};
object triplex_meter {
  bill_day 1;
  monthly_fee 25.00;
  bill_mode HOURLY;
  nominal_voltage 120;
  meter_power_consumption 1.333333+7.000000j;
  groupid Commercial_Meter;
  phases BS;
  name R1-12-47-3_load_17_tm_B_1;
  power_market Market_1;
  parent R1-12-47-3_load_17_tn_B_1;
};
object house {
  heating_setpoint stripmall_heating;
  cooling_setpoint 85;
  cooling_COP 2.73;
  over_sizing_factor 0.1;
  mass_temperature 70.45;
  air_temperature 70.45;
  cooling_system_type ELECTRIC;
  fan_type ONE_SPEED;
  auxiliary_system_type NONE;
  heating_system_type GAS;
  window_wall_ratio 0.050;
  airchange_per_hour 1.76;
  window_frame NONE;
  glazing_treatment LOW_S;
  glass_type GLASS;
  glazing_layers TWO;
  exterior_wall_fraction 0.40;
  Rdoors 3.0;
  Rfloor 40.00;
  Rroof 19.0;
  Rwall 18.3;
  exterior_ceiling_fraction 1.000;
  exterior_floor_fraction 0.800;
  interior_exterior_wall_ratio -0.1;
  interior_surface_heat_transfer_coeff 0.59;
  total_thermal_mass_per_floor_area 5.53;
  aspect_ratio 1.50;
  number_of_doors 1;
  design_internal_gains 21097;
  floor_area 1717;
  schedule_skew 1800;
  groupid Commercial;
  name stripmallR1-12-47-3_load_17_B1;
  parent R1-12-47-3_load_17_tm_B_1;
};
object ZIPload {
  base_power stripmall_lights*1.52;
  impedance_pf 1.00;
  current_pf 1.00;
  power_pf 1.00;
  current_fraction 0.40;
  impedance_fraction 0.20;
  power_fraction 0.40;
  heatgain_fraction 1.0;
  schedule_skew 1800;
  name lights_R1-12-47-3_load_17_B_1;
  parent stripmallR1-12-47-3_load_17_B1;
};
object triplex_node {
  nominal_voltage 120;
  phases CS;
  name R1-12-47-3_load_1_tn_C_2;
};
object triplex_meter {
  bill_day 1;
  monthly_fee 25.00;
  bill_mode HOURLY;
  nominal_voltage 120;
  meter_power_consumption 1.333333+7.000000j;
  groupid Commercial_Meter;
  phases CS;
  name R1-12-47-3_load_1_tm_C_2;
  power_market Market_1;
  parent R1-12-47-3_load_1_tn_C_2;
};
object house {
  heating_setpoint stripmall_heating;
  cooling_setpoint 85;
  cooling_COP 3.07;
  over_sizing_factor 0.1;
  mass_temperature 68.14;
  air_temperature 68.14;
  cooling_system_type ELECTRIC;
  fan_type ONE_SPEED;
  auxiliary_system_type NONE;
  heating_system_type GAS;
  window_wall_ratio 0.050;
  airchange_per_hour 1.76;
  window_frame NONE;
  glazing_treatment LOW_S;
  glass_type GLASS;
  glazing_layers TWO;
  exterior_wall_fraction 0.40;
  Rdoors 3.0;
  Rfloor 40.00;
  Rroof 19.0;
  Rwall 18.3;
  exterior_ceiling_fraction 1.000;
  exterior_floor_fraction 0.800;
  interior_exterior_wall_ratio -0.1;
  interior_surface_heat_transfer_coeff 0.59;
  total_thermal_mass_per_floor_area 2.36;
  aspect_ratio 1.50;
  number_of_doors 1;
  design_internal_gains 35596;
  floor_area 2897;
  schedule_skew -3600;
  groupid Commercial;
  name stripmallR1-12-47-3_load_1_C2;
  parent R1-12-47-3_load_1_tm_C_2;
};
object triplex_node {
  nominal_voltage 120;
  phases CS;
  name R1-12-47-3_load_4_tn_C_2;
};
object triplex_meter {
  bill_day 1;
  monthly_fee 25.00;
  bill_mode HOURLY;
  nominal_voltage 120;
  meter_power_consumption 1.333333+7.000000j;
  groupid Commercial_Meter;
  phases CS;
  name R1-12-47-3_load_4_tm_C_2;
  power_market Market_1;
  parent R1-12-47-3_load_4_tn_C_2;
};
object house {
  heating_setpoint stripmall_heating;
  cooling_setpoint 85;
  cooling_COP 3.46;
  over_sizing_factor 0.1;
  mass_temperature 70.35;
  air_temperature 70.35;
  cooling_system_type ELECTRIC;
  fan_type ONE_SPEED;
  auxiliary_system_type NONE;
  heating_system_type GAS;
  window_wall_ratio 0.050;
  airchange_per_hour 1.76;
  window_frame NONE;
  glazing_treatment LOW_S;
  glass_type GLASS;
  glazing_layers TWO;
  exterior_wall_fraction 0.40;
  Rdoors 3.0;
  Rfloor 40.00;
  Rroof 19.0;
  Rwall 18.3;
  exterior_ceiling_fraction 1.000;
  exterior_floor_fraction 0.800;
  interior_exterior_wall_ratio -0.1;
  interior_surface_heat_transfer_coeff 0.59;
  total_thermal_mass_per_floor_area 2.36;
  aspect_ratio 1.50;
  number_of_doors 1;
  design_internal_gains 38281;
  floor_area 3116;
  schedule_skew -5400;
  groupid Commercial;
  name stripmallR1-12-47-3_load_4_C2;
  parent R1-12-47-3_load_4_tm_C_2;
};
object ZIPload {
  base_power stripmall_lights*3.42;
  impedance_pf 1.00;